[Config MESH16RANDOM]

record-eventlog = false
sim-time-limit = 20s
**.udpApp[*].time_off = 1s

**.policy = "RANDOM"
#**.ifChoice =""
**.mobileHost[*].numUdpApps = ${numudpapp = 15}
repeat = 20
**.udpApp[*].start_probability = ${sp=10,20,30,50,70,90}

*.numHosts = 16
**.numRadios = 3
output-scalar-file = ./results/RANDOM/MESH/${configname}_par${sp}_${repetition}_.sca
output-vector-file = ./results/${configname}_par${sp}_${repetition}_.vec
**.channelControl.numChannels = 8
**.mobileHost[*].wlan[0].radio.channelNumber = 1
**.mobileHost[*].wlan[1].radio.channelNumber = 6
**.mobileHost[*].wlan[2].radio.channelNumber = 7

*.mobileHost[0].mobility.x = 0
*.mobileHost[0].mobility.y = 0
*.mobileHost[1].mobility.x = 150
*.mobileHost[1].mobility.y = 0
*.mobileHost[2].mobility.x = 300
*.mobileHost[2].mobility.y = 0
*.mobileHost[3].mobility.x = 450
*.mobileHost[3].mobility.y = 0
*.mobileHost[4].mobility.x = 0
*.mobileHost[4].mobility.y = 150
*.mobileHost[5].mobility.x = 150
*.mobileHost[5].mobility.y = 150
*.mobileHost[6].mobility.x = 300
*.mobileHost[6].mobility.y = 150
*.mobileHost[7].mobility.x = 450
*.mobileHost[7].mobility.y = 150
*.mobileHost[8].mobility.x = 0
*.mobileHost[8].mobility.y = 300
*.mobileHost[9].mobility.x = 150
*.mobileHost[9].mobility.y = 300
*.mobileHost[10].mobility.x = 300
*.mobileHost[10].mobility.y = 300
*.mobileHost[11].mobility.x = 450
*.mobileHost[11].mobility.y = 300
*.mobileHost[12].mobility.x = 0
*.mobileHost[12].mobility.y = 450
*.mobileHost[13].mobility.x = 150
*.mobileHost[13].mobility.y = 450
*.mobileHost[14].mobility.x = 300
*.mobileHost[14].mobility.y = 450
*.mobileHost[15].mobility.x = 450
*.mobileHost[15].mobility.y = 450

[Config MESH16FWD]

record-eventlog = false
sim-time-limit = 20s
**.udpApp[*].time_off = 1s

**.policy = "GT"
**.ifChoice ="GT_FWD"
**.mobileHost[*].numUdpApps = ${numudpapp = 15}
repeat = 20
**.udpApp[*].start_probability = ${sp=10,20,30,50,70,90}

*.numHosts = 16
**.numRadios = 3
output-scalar-file = ./results/GTFWD/MESH/${configname}_par${sp}_${repetition}_.sca
output-vector-file = ./results/${configname}_par${sp}_${repetition}_.vec
**.channelControl.numChannels = 8
**.mobileHost[*].wlan[0].radio.channelNumber = 1
**.mobileHost[*].wlan[1].radio.channelNumber = 6
**.mobileHost[*].wlan[2].radio.channelNumber = 7

*.mobileHost[0].mobility.x = 0
*.mobileHost[0].mobility.y = 0
*.mobileHost[1].mobility.x = 150
*.mobileHost[1].mobility.y = 0
*.mobileHost[2].mobility.x = 300
*.mobileHost[2].mobility.y = 0
*.mobileHost[3].mobility.x = 450
*.mobileHost[3].mobility.y = 0
*.mobileHost[4].mobility.x = 0
*.mobileHost[4].mobility.y = 150
*.mobileHost[5].mobility.x = 150
*.mobileHost[5].mobility.y = 150
*.mobileHost[6].mobility.x = 300
*.mobileHost[6].mobility.y = 150
*.mobileHost[7].mobility.x = 450
*.mobileHost[7].mobility.y = 150
*.mobileHost[8].mobility.x = 0
*.mobileHost[8].mobility.y = 300
*.mobileHost[9].mobility.x = 150
*.mobileHost[9].mobility.y = 300
*.mobileHost[10].mobility.x = 300
*.mobileHost[10].mobility.y = 300
*.mobileHost[11].mobility.x = 450
*.mobileHost[11].mobility.y = 300
*.mobileHost[12].mobility.x = 0
*.mobileHost[12].mobility.y = 450
*.mobileHost[13].mobility.x = 150
*.mobileHost[13].mobility.y = 450
*.mobileHost[14].mobility.x = 300
*.mobileHost[14].mobility.y = 450
*.mobileHost[15].mobility.x = 450
*.mobileHost[15].mobility.y = 450

[Config MESH16RND]

record-eventlog = false
sim-time-limit = 20s
**.udpApp[*].time_off = 1s

**.policy = "GT"
**.ifChoice ="GT_RND"
**.mobileHost[*].numUdpApps = ${numudpapp = 15}
repeat = 20
**.udpApp[*].start_probability = ${sp=10,20,30,50,70,90}

*.numHosts = 16
**.numRadios = 3
output-scalar-file = ./results/GTRND/MESH/${configname}_par${sp}_${repetition}_.sca
output-vector-file = ./results/${configname}_par${sp}_${repetition}_.vec
**.channelControl.numChannels = 8
**.mobileHost[*].wlan[0].radio.channelNumber = 1
**.mobileHost[*].wlan[1].radio.channelNumber = 6
**.mobileHost[*].wlan[2].radio.channelNumber = 7

*.mobileHost[0].mobility.x = 0
*.mobileHost[0].mobility.y = 0
*.mobileHost[1].mobility.x = 150
*.mobileHost[1].mobility.y = 0
*.mobileHost[2].mobility.x = 300
*.mobileHost[2].mobility.y = 0
*.mobileHost[3].mobility.x = 450
*.mobileHost[3].mobility.y = 0
*.mobileHost[4].mobility.x = 0
*.mobileHost[4].mobility.y = 150
*.mobileHost[5].mobility.x = 150
*.mobileHost[5].mobility.y = 150
*.mobileHost[6].mobility.x = 300
*.mobileHost[6].mobility.y = 150
*.mobileHost[7].mobility.x = 450
*.mobileHost[7].mobility.y = 150
*.mobileHost[8].mobility.x = 0
*.mobileHost[8].mobility.y = 300
*.mobileHost[9].mobility.x = 150
*.mobileHost[9].mobility.y = 300
*.mobileHost[10].mobility.x = 300
*.mobileHost[10].mobility.y = 300
*.mobileHost[11].mobility.x = 450
*.mobileHost[11].mobility.y = 300
*.mobileHost[12].mobility.x = 0
*.mobileHost[12].mobility.y = 450
*.mobileHost[13].mobility.x = 150
*.mobileHost[13].mobility.y = 450
*.mobileHost[14].mobility.x = 300
*.mobileHost[14].mobility.y = 450
*.mobileHost[15].mobility.x = 450
*.mobileHost[15].mobility.y = 450

[Config MESH16NOLOAD]

record-eventlog = false
sim-time-limit = 20s
**.udpApp[*].time_off = 1s

**.policy = "GT"
**.ifChoice ="GT_NOLOAD"
**.mobileHost[*].numUdpApps = ${numudpapp = 15}
repeat = 20
**.udpApp[*].start_probability = ${sp=10,20,30,50,70,90}

*.numHosts = 16
**.numRadios = 3
output-scalar-file = ./results/NOLOAD/MESH/${configname}_par${sp}_${repetition}_.sca
output-vector-file = ./results/${configname}_par${sp}_${repetition}_.vec
**.channelControl.numChannels = 8
**.mobileHost[*].wlan[0].radio.channelNumber = 1
**.mobileHost[*].wlan[1].radio.channelNumber = 6
**.mobileHost[*].wlan[2].radio.channelNumber = 7

*.mobileHost[0].mobility.x = 0
*.mobileHost[0].mobility.y = 0
*.mobileHost[1].mobility.x = 150
*.mobileHost[1].mobility.y = 0
*.mobileHost[2].mobility.x = 300
*.mobileHost[2].mobility.y = 0
*.mobileHost[3].mobility.x = 450
*.mobileHost[3].mobility.y = 0
*.mobileHost[4].mobility.x = 0
*.mobileHost[4].mobility.y = 150
*.mobileHost[5].mobility.x = 150
*.mobileHost[5].mobility.y = 150
*.mobileHost[6].mobility.x = 300
*.mobileHost[6].mobility.y = 150
*.mobileHost[7].mobility.x = 450
*.mobileHost[7].mobility.y = 150
*.mobileHost[8].mobility.x = 0
*.mobileHost[8].mobility.y = 300
*.mobileHost[9].mobility.x = 150
*.mobileHost[9].mobility.y = 300
*.mobileHost[10].mobility.x = 300
*.mobileHost[10].mobility.y = 300
*.mobileHost[11].mobility.x = 450
*.mobileHost[11].mobility.y = 300
*.mobileHost[12].mobility.x = 0
*.mobileHost[12].mobility.y = 450
*.mobileHost[13].mobility.x = 150
*.mobileHost[13].mobility.y = 450
*.mobileHost[14].mobility.x = 300
*.mobileHost[14].mobility.y = 450
*.mobileHost[15].mobility.x = 450
*.mobileHost[15].mobility.y = 450

[Config GTLIN9FWD]

record-eventlog = false
sim-time-limit = 20s
**.udpApp[*].time_off = 1s

**.policy = "GT"
**.ifChoice = "GT_FWD"
**.mobileHost[*].numUdpApps = ${numudpapp = 20}
repeat = 8
**.udpApp[*].start_probability = ${sp=10,20,30,50,70,90}

*.numHosts = 9
**.numRadios = 3
output-scalar-file = ./results/GTFWD/${configname}_numapp${numudpapp}_par${sp}_${repetition}_.sca
output-vector-file = ./results/GTFWD/${configname}_par${sp}_${repetition}_.vec
**.channelControl.numChannels = 8
**.mobileHost[*].wlan[0].radio.channelNumber = 1
**.mobileHost[*].wlan[1].radio.channelNumber = 6
**.mobileHost[*].wlan[2].radio.channelNumber = 7
*.mobileHost[0].mobility.x = 50
*.mobileHost[0].mobility.y = 50
*.mobileHost[1].mobility.x = 200
*.mobileHost[1].mobility.y = 50
*.mobileHost[2].mobility.x = 350
*.mobileHost[2].mobility.y = 50
*.mobileHost[3].mobility.x = 500
*.mobileHost[3].mobility.y = 50
*.mobileHost[4].mobility.x = 650
*.mobileHost[4].mobility.y = 50
*.mobileHost[5].mobility.x = 800
*.mobileHost[5].mobility.y = 50
*.mobileHost[6].mobility.x = 950
*.mobileHost[6].mobility.y = 50
*.mobileHost[7].mobility.x = 1100
*.mobileHost[7].mobility.y = 50
*.mobileHost[8].mobility.x = 1250
*.mobileHost[8].mobility.y = 50

[Config LIN9COOP]

record-eventlog = false
sim-time-limit = 20s
**.udpApp[*].time_off = 1s

**.policy = "GT"
**.ifChoice = "GT_COOP"
**.mobileHost[*].numUdpApps = ${numudpapp = 20}
repeat = 10
**.udpApp[*].start_probability = ${sp=90}

*.numHosts = 9
**.numRadios = 3
output-scalar-file = ./results/COOP/${configname}_numapp${numudpapp}_par${sp}_${repetition}_.sca
output-vector-file = ./results/GTFWD/${configname}_par${sp}_${repetition}_.vec
**.channelControl.numChannels = 8
**.mobileHost[*].wlan[0].radio.channelNumber = 1
**.mobileHost[*].wlan[1].radio.channelNumber = 6
**.mobileHost[*].wlan[2].radio.channelNumber = 7
*.mobileHost[0].mobility.x = 50
*.mobileHost[0].mobility.y = 50
*.mobileHost[1].mobility.x = 200
*.mobileHost[1].mobility.y = 50
*.mobileHost[2].mobility.x = 350
*.mobileHost[2].mobility.y = 50
*.mobileHost[3].mobility.x = 500
*.mobileHost[3].mobility.y = 50
*.mobileHost[4].mobility.x = 650
*.mobileHost[4].mobility.y = 50
*.mobileHost[5].mobility.x = 800
*.mobileHost[5].mobility.y = 50
*.mobileHost[6].mobility.x = 950
*.mobileHost[6].mobility.y = 50
*.mobileHost[7].mobility.x = 1100
*.mobileHost[7].mobility.y = 50
*.mobileHost[8].mobility.x = 1250
*.mobileHost[8].mobility.y = 50

[Config GTLIN9RND]

record-eventlog = false
sim-time-limit = 20s
**.udpApp[*].time_off = 1s

**.policy = "GT"
**.ifChoice = "GT_RND"
**.mobileHost[*].numUdpApps = ${numudpapp = 20}
repeat = 8
**.udpApp[*].start_probability = ${sp= 10,20,30,50,70,90}

*.numHosts = 9
**.numRadios = 3
output-scalar-file = ./results/GTRND/${configname}_numapp${numudpapp}_par${sp}_${repetition}_.sca
output-vector-file = ./results/GTRND/${configname}_par${sp}_${repetition}_.vec
**.channelControl.numChannels = 8
**.mobileHost[*].wlan[0].radio.channelNumber = 1
**.mobileHost[*].wlan[1].radio.channelNumber = 6
**.mobileHost[*].wlan[2].radio.channelNumber = 7
*.mobileHost[0].mobility.x = 50
*.mobileHost[0].mobility.y = 50
*.mobileHost[1].mobility.x = 200
*.mobileHost[1].mobility.y = 50
*.mobileHost[2].mobility.x = 350
*.mobileHost[2].mobility.y = 50
*.mobileHost[3].mobility.x = 500
*.mobileHost[3].mobility.y = 50
*.mobileHost[4].mobility.x = 650
*.mobileHost[4].mobility.y = 50
*.mobileHost[5].mobility.x = 800
*.mobileHost[5].mobility.y = 50
*.mobileHost[6].mobility.x = 950
*.mobileHost[6].mobility.y = 50
*.mobileHost[7].mobility.x = 1100
*.mobileHost[7].mobility.y = 50
*.mobileHost[8].mobility.x = 1250
*.mobileHost[8].mobility.y = 50

[Config LIN9RANDOM]

record-eventlog = false
sim-time-limit = 20s
**.udpApp[*].time_off = 1s

**.policy = "RANDOM"
# **.ifChoice = 
**.mobileHost[*].numUdpApps = ${numudpapp = 20}
repeat = 8
**.udpApp[*].start_probability = ${sp=10,20,30,50,70,90}

*.numHosts = 9
**.numRadios = 3
output-scalar-file = ./results/RANDOM/${configname}_par${sp}_${repetition}_.sca
output-vector-file = ./results/RANDOM/${configname}_par${sp}_${repetition}_.vec
**.channelControl.numChannels = 8
**.mobileHost[*].wlan[0].radio.channelNumber = 1
**.mobileHost[*].wlan[1].radio.channelNumber = 6
**.mobileHost[*].wlan[2].radio.channelNumber = 7
*.mobileHost[0].mobility.x = 50
*.mobileHost[0].mobility.y = 50
*.mobileHost[1].mobility.x = 200
*.mobileHost[1].mobility.y = 50
*.mobileHost[2].mobility.x = 350
*.mobileHost[2].mobility.y = 50
*.mobileHost[3].mobility.x = 500
*.mobileHost[3].mobility.y = 50
*.mobileHost[4].mobility.x = 650
*.mobileHost[4].mobility.y = 50
*.mobileHost[5].mobility.x = 800
*.mobileHost[5].mobility.y = 50
*.mobileHost[6].mobility.x = 950
*.mobileHost[6].mobility.y = 50
*.mobileHost[7].mobility.x = 1100
*.mobileHost[7].mobility.y = 50
*.mobileHost[8].mobility.x = 1250
*.mobileHost[8].mobility.y = 50

[Config GTLIN9FWD_NOLOAD]

record-eventlog = false
sim-time-limit = 20s
**.udpApp[*].time_off = 1s

**.policy = "GT"
**.ifChoice = "GT_NOLOAD"
**.mobileHost[*].numUdpApps = ${numudpapp = 20}
repeat = 8
**.udpApp[*].start_probability = ${sp=10,20,30,50,70,90}

*.numHosts = 9
**.numRadios = 3
output-scalar-file = ./results/NOLOAD/fixed_${configname}_numapp${numudpapp}_par${sp}_${repetition}_.sca
output-vector-file = ./results/${configname}_par${sp}_${repetition}_.vec
**.channelControl.numChannels = 8
**.mobileHost[*].wlan[0].radio.channelNumber = 1
**.mobileHost[*].wlan[1].radio.channelNumber = 6
**.mobileHost[*].wlan[2].radio.channelNumber = 7
*.mobileHost[0].mobility.x = 50
*.mobileHost[0].mobility.y = 50
*.mobileHost[1].mobility.x = 200
*.mobileHost[1].mobility.y = 50
*.mobileHost[2].mobility.x = 350
*.mobileHost[2].mobility.y = 50
*.mobileHost[3].mobility.x = 500
*.mobileHost[3].mobility.y = 50
*.mobileHost[4].mobility.x = 650
*.mobileHost[4].mobility.y = 50
*.mobileHost[5].mobility.x = 800
*.mobileHost[5].mobility.y = 50
*.mobileHost[6].mobility.x = 950
*.mobileHost[6].mobility.y = 50
*.mobileHost[7].mobility.x = 1100
*.mobileHost[7].mobility.y = 50
*.mobileHost[8].mobility.x = 1250
*.mobileHost[8].mobility.y = 50

[Config TreeRANDOM]
record-eventlog = false
sim-time-limit = 20s
**.udpApp[*].time_off = 1s

**.policy = "RANDOM"
# **.ifChoice = 
**.mobileHost[5].numUdpApps = 1
**.mobileHost[*].numUdpApps = ${numudpapp = 15}

repeat = 20
**.mobileHost[*].udpApp[*].start_probability = ${sp=10,20,30,50,70,90}
**.mobileHost[5].udpApp[*].start_probability = 0

**.udpApp[*].destAddresses = "mobileHost[5]"

*.numHosts = 11
**.numRadios = 3
output-scalar-file = ./results/TREE/RANDOM/${configname}_sp${sp}_${repetition}_.sca
output-vector-file = ./results/${configname}_${repetition}_.vec
**.channelControl.numChannels = 8
**.mobileHost[*].wlan[0].radio.channelNumber = 1
**.mobileHost[*].wlan[1].radio.channelNumber = 6
**.mobileHost[*].wlan[2].radio.channelNumber = 7
*.mobileHost[0].mobility.x = 50
*.mobileHost[0].mobility.y = 50
*.mobileHost[1].mobility.x = 50
*.mobileHost[1].mobility.y = 262
*.mobileHost[2].mobility.x = 200
*.mobileHost[2].mobility.y = 50
*.mobileHost[3].mobility.x = 200
*.mobileHost[3].mobility.y = 262
*.mobileHost[4].mobility.x = 306
*.mobileHost[4].mobility.y = 156
*.mobileHost[5].mobility.x = 456
*.mobileHost[5].mobility.y = 156
*.mobileHost[6].mobility.x = 606
*.mobileHost[6].mobility.y = 156
*.mobileHost[7].mobility.x = 712
*.mobileHost[7].mobility.y = 50
*.mobileHost[8].mobility.x = 712
*.mobileHost[8].mobility.y = 262
*.mobileHost[9].mobility.x = 862
*.mobileHost[9].mobility.y = 50
*.mobileHost[10].mobility.x = 862
*.mobileHost[10].mobility.y = 262

[Config TreeFWD]
record-eventlog = false
sim-time-limit = 20s
**.udpApp[*].time_off = 1s

**.policy = "GT"
**.ifChoice = "GT_FWD" 
**.mobileHost[5].numUdpApps = 1
**.mobileHost[*].numUdpApps = ${numudpapp = 15}

repeat = 20
**.mobileHost[*].udpApp[*].start_probability = ${sp=10,20,30,50,70,90}
**.mobileHost[5].udpApp[*].start_probability = 0

**.udpApp[*].destAddresses = "mobileHost[5]"

*.numHosts = 11
**.numRadios = 3
output-scalar-file = ./results/TREE/FWD/${configname}_sp${sp}_${repetition}_.sca
output-vector-file = ./results/${configname}_${repetition}_.vec
**.channelControl.numChannels = 8
**.mobileHost[*].wlan[0].radio.channelNumber = 1
**.mobileHost[*].wlan[1].radio.channelNumber = 6
**.mobileHost[*].wlan[2].radio.channelNumber = 7
*.mobileHost[0].mobility.x = 50
*.mobileHost[0].mobility.y = 50
*.mobileHost[1].mobility.x = 50
*.mobileHost[1].mobility.y = 262
*.mobileHost[2].mobility.x = 200
*.mobileHost[2].mobility.y = 50
*.mobileHost[3].mobility.x = 200
*.mobileHost[3].mobility.y = 262
*.mobileHost[4].mobility.x = 306
*.mobileHost[4].mobility.y = 156
*.mobileHost[5].mobility.x = 456
*.mobileHost[5].mobility.y = 156
*.mobileHost[6].mobility.x = 606
*.mobileHost[6].mobility.y = 156
*.mobileHost[7].mobility.x = 712
*.mobileHost[7].mobility.y = 50
*.mobileHost[8].mobility.x = 712
*.mobileHost[8].mobility.y = 262
*.mobileHost[9].mobility.x = 862
*.mobileHost[9].mobility.y = 50
*.mobileHost[10].mobility.x = 862
*.mobileHost[10].mobility.y = 262

[Config TreeRND]
record-eventlog = false
sim-time-limit = 20s
**.udpApp[*].time_off = 1s

**.policy = "GT"
**.ifChoice = "GT_RND" 
**.mobileHost[5].numUdpApps = 1
**.mobileHost[*].numUdpApps = ${numudpapp = 15}

repeat = 20
**.mobileHost[*].udpApp[*].start_probability = ${sp=10,20,30,50,70,90}
**.mobileHost[5].udpApp[*].start_probability = 0

**.udpApp[*].destAddresses = "mobileHost[5]"

*.numHosts = 11
**.numRadios = 3
output-scalar-file = ./results/TREE/RND/${configname}_sp${sp}_${repetition}_.sca
output-vector-file = ./results/${configname}_${repetition}_.vec
**.channelControl.numChannels = 8
**.mobileHost[*].wlan[0].radio.channelNumber = 1
**.mobileHost[*].wlan[1].radio.channelNumber = 6
**.mobileHost[*].wlan[2].radio.channelNumber = 7
*.mobileHost[0].mobility.x = 50
*.mobileHost[0].mobility.y = 50
*.mobileHost[1].mobility.x = 50
*.mobileHost[1].mobility.y = 262
*.mobileHost[2].mobility.x = 200
*.mobileHost[2].mobility.y = 50
*.mobileHost[3].mobility.x = 200
*.mobileHost[3].mobility.y = 262
*.mobileHost[4].mobility.x = 306
*.mobileHost[4].mobility.y = 156
*.mobileHost[5].mobility.x = 456
*.mobileHost[5].mobility.y = 156
*.mobileHost[6].mobility.x = 606
*.mobileHost[6].mobility.y = 156
*.mobileHost[7].mobility.x = 712
*.mobileHost[7].mobility.y = 50
*.mobileHost[8].mobility.x = 712
*.mobileHost[8].mobility.y = 262
*.mobileHost[9].mobility.x = 862
*.mobileHost[9].mobility.y = 50
*.mobileHost[10].mobility.x = 862
*.mobileHost[10].mobility.y = 262

[Config TreeNOLOAD]
record-eventlog = false
sim-time-limit = 20s
**.udpApp[*].time_off = 1s

**.policy = "GT"
**.ifChoice = "GT_NOLOAD" 
**.mobileHost[5].numUdpApps = 1
**.mobileHost[*].numUdpApps = ${numudpapp = 15}

repeat = 20
**.mobileHost[*].udpApp[*].start_probability = ${sp=10,20,30,50,70,90}
**.mobileHost[5].udpApp[*].start_probability = 0

**.udpApp[*].destAddresses = "mobileHost[5]"

*.numHosts = 11
**.numRadios = 3
output-scalar-file = ./results/TREE/NOLOAD/${configname}_sp${sp}_${repetition}_.sca
output-vector-file = ./results/${configname}_${repetition}_.vec
**.channelControl.numChannels = 8
**.mobileHost[*].wlan[0].radio.channelNumber = 1
**.mobileHost[*].wlan[1].radio.channelNumber = 6
**.mobileHost[*].wlan[2].radio.channelNumber = 7
*.mobileHost[0].mobility.x = 50
*.mobileHost[0].mobility.y = 50
*.mobileHost[1].mobility.x = 50
*.mobileHost[1].mobility.y = 262
*.mobileHost[2].mobility.x = 200
*.mobileHost[2].mobility.y = 50
*.mobileHost[3].mobility.x = 200
*.mobileHost[3].mobility.y = 262
*.mobileHost[4].mobility.x = 306
*.mobileHost[4].mobility.y = 156
*.mobileHost[5].mobility.x = 456
*.mobileHost[5].mobility.y = 156
*.mobileHost[6].mobility.x = 606
*.mobileHost[6].mobility.y = 156
*.mobileHost[7].mobility.x = 712
*.mobileHost[7].mobility.y = 50
*.mobileHost[8].mobility.x = 712
*.mobileHost[8].mobility.y = 262
*.mobileHost[9].mobility.x = 862
*.mobileHost[9].mobility.y = 50
*.mobileHost[10].mobility.x = 862
*.mobileHost[10].mobility.y = 262

[Config TreeRANDOMplus]
record-eventlog = false
sim-time-limit = 20s
**.udpApp[*].time_off = 1s

**.policy = "RANDOM"
# **.ifChoice = 
**.mobileHost[5].numUdpApps = 1
**.mobileHost[*].numUdpApps = ${numudpapp = 20}

repeat = 5
**.mobileHost[*].udpApp[*].start_probability = ${sp=10,20,30,50,70,90}
**.mobileHost[5].udpApp[*].start_probability = 0

**.udpApp[*].destAddresses = "mobileHost[5]"

*.numHosts = 11
**.numRadios = 3
output-scalar-file = ./results/TREE/RANDOM/${configname}_sp${sp}_${repetition}_.sca
output-vector-file = ./results/${configname}_${repetition}_.vec
**.channelControl.numChannels = 8
**.mobileHost[*].wlan[0].radio.channelNumber = 1
**.mobileHost[*].wlan[1].radio.channelNumber = 6
**.mobileHost[*].wlan[2].radio.channelNumber = 7
*.mobileHost[0].mobility.x = 50
*.mobileHost[0].mobility.y = 50
*.mobileHost[1].mobility.x = 50
*.mobileHost[1].mobility.y = 262
*.mobileHost[2].mobility.x = 200
*.mobileHost[2].mobility.y = 50
*.mobileHost[3].mobility.x = 200
*.mobileHost[3].mobility.y = 262
*.mobileHost[4].mobility.x = 306
*.mobileHost[4].mobility.y = 156
*.mobileHost[5].mobility.x = 456
*.mobileHost[5].mobility.y = 156
*.mobileHost[6].mobility.x = 606
*.mobileHost[6].mobility.y = 156
*.mobileHost[7].mobility.x = 712
*.mobileHost[7].mobility.y = 50
*.mobileHost[8].mobility.x = 712
*.mobileHost[8].mobility.y = 262
*.mobileHost[9].mobility.x = 862
*.mobileHost[9].mobility.y = 50
*.mobileHost[10].mobility.x = 862
*.mobileHost[10].mobility.y = 262

[Config TreeFWDplus]
record-eventlog = false
sim-time-limit = 20s
**.udpApp[*].time_off = 1s

**.policy = "GT"
**.ifChoice = "GT_FWD"
**.mobileHost[5].numUdpApps = 1
**.mobileHost[*].numUdpApps = ${numudpapp = 20}

repeat = 5
**.mobileHost[*].udpApp[*].start_probability = ${sp=10,20,30,50,70,90}
**.mobileHost[5].udpApp[*].start_probability = 0

**.udpApp[*].destAddresses = "mobileHost[5]"

*.numHosts = 11
**.numRadios = 3
output-scalar-file = ./results/TREE/FWD/${configname}_sp${sp}_${repetition}_.sca
output-vector-file = ./results/${configname}_${repetition}_.vec
**.channelControl.numChannels = 8
**.mobileHost[*].wlan[0].radio.channelNumber = 1
**.mobileHost[*].wlan[1].radio.channelNumber = 6
**.mobileHost[*].wlan[2].radio.channelNumber = 7
*.mobileHost[0].mobility.x = 50
*.mobileHost[0].mobility.y = 50
*.mobileHost[1].mobility.x = 50
*.mobileHost[1].mobility.y = 262
*.mobileHost[2].mobility.x = 200
*.mobileHost[2].mobility.y = 50
*.mobileHost[3].mobility.x = 200
*.mobileHost[3].mobility.y = 262
*.mobileHost[4].mobility.x = 306
*.mobileHost[4].mobility.y = 156
*.mobileHost[5].mobility.x = 456
*.mobileHost[5].mobility.y = 156
*.mobileHost[6].mobility.x = 606
*.mobileHost[6].mobility.y = 156
*.mobileHost[7].mobility.x = 712
*.mobileHost[7].mobility.y = 50
*.mobileHost[8].mobility.x = 712
*.mobileHost[8].mobility.y = 262
*.mobileHost[9].mobility.x = 862
*.mobileHost[9].mobility.y = 50
*.mobileHost[10].mobility.x = 862
*.mobileHost[10].mobility.y = 262

[Config TreeRNDplus]
record-eventlog = false
sim-time-limit = 20s
**.udpApp[*].time_off = 1s

**.policy = "GT"
**.ifChoice = "GT_RND"
**.mobileHost[5].numUdpApps = 1
**.mobileHost[*].numUdpApps = ${numudpapp = 20}

repeat = 5
**.mobileHost[*].udpApp[*].start_probability = ${sp=10,20,30,50,70,90}
**.mobileHost[5].udpApp[*].start_probability = 0

**.udpApp[*].destAddresses = "mobileHost[5]"

*.numHosts = 11
**.numRadios = 3
output-scalar-file = ./results/TREE/RND/${configname}_sp${sp}_${repetition}_.sca
output-vector-file = ./results/${configname}_${repetition}_.vec
**.channelControl.numChannels = 8
**.mobileHost[*].wlan[0].radio.channelNumber = 1
**.mobileHost[*].wlan[1].radio.channelNumber = 6
**.mobileHost[*].wlan[2].radio.channelNumber = 7
*.mobileHost[0].mobility.x = 50
*.mobileHost[0].mobility.y = 50
*.mobileHost[1].mobility.x = 50
*.mobileHost[1].mobility.y = 262
*.mobileHost[2].mobility.x = 200
*.mobileHost[2].mobility.y = 50
*.mobileHost[3].mobility.x = 200
*.mobileHost[3].mobility.y = 262
*.mobileHost[4].mobility.x = 306
*.mobileHost[4].mobility.y = 156
*.mobileHost[5].mobility.x = 456
*.mobileHost[5].mobility.y = 156
*.mobileHost[6].mobility.x = 606
*.mobileHost[6].mobility.y = 156
*.mobileHost[7].mobility.x = 712
*.mobileHost[7].mobility.y = 50
*.mobileHost[8].mobility.x = 712
*.mobileHost[8].mobility.y = 262
*.mobileHost[9].mobility.x = 862
*.mobileHost[9].mobility.y = 50
*.mobileHost[10].mobility.x = 862
*.mobileHost[10].mobility.y = 262

[Config TreeNOLOADplus]
record-eventlog = false
sim-time-limit = 20s
**.udpApp[*].time_off = 1s

**.policy = "GT"
**.ifChoice = "GT_NOLOAD"
**.mobileHost[5].numUdpApps = 1
**.mobileHost[*].numUdpApps = ${numudpapp = 20}

repeat = 5
**.mobileHost[*].udpApp[*].start_probability = ${sp=10,20,30,50,70,90}
**.mobileHost[5].udpApp[*].start_probability = 0

**.udpApp[*].destAddresses = "mobileHost[5]"

*.numHosts = 11
**.numRadios = 3
output-scalar-file = ./results/TREE/NOLOAD/${configname}_sp${sp}_${repetition}_.sca
output-vector-file = ./results/${configname}_${repetition}_.vec
**.channelControl.numChannels = 8
**.mobileHost[*].wlan[0].radio.channelNumber = 1
**.mobileHost[*].wlan[1].radio.channelNumber = 6
**.mobileHost[*].wlan[2].radio.channelNumber = 7
*.mobileHost[0].mobility.x = 50
*.mobileHost[0].mobility.y = 50
*.mobileHost[1].mobility.x = 50
*.mobileHost[1].mobility.y = 262
*.mobileHost[2].mobility.x = 200
*.mobileHost[2].mobility.y = 50
*.mobileHost[3].mobility.x = 200
*.mobileHost[3].mobility.y = 262
*.mobileHost[4].mobility.x = 306
*.mobileHost[4].mobility.y = 156
*.mobileHost[5].mobility.x = 456
*.mobileHost[5].mobility.y = 156
*.mobileHost[6].mobility.x = 606
*.mobileHost[6].mobility.y = 156
*.mobileHost[7].mobility.x = 712
*.mobileHost[7].mobility.y = 50
*.mobileHost[8].mobility.x = 712
*.mobileHost[8].mobility.y = 262
*.mobileHost[9].mobility.x = 862
*.mobileHost[9].mobility.y = 50
*.mobileHost[10].mobility.x = 862
*.mobileHost[10].mobility.y = 262

[Config GTrndIfIndex36]

record-eventlog = false
# network = NetworkMultiRadioIPv4
sim-time-limit = 20s
**.udpApp[*].time_off = 1s

**.policy = "GT"
**.ifChoice = "GT_RND"

**.mobileHost[*].numUdpApps = ${numudpapp = 3}
repeat = 6
**.udpApp[*].start_probability = ${sp=40,50,60,70,80}


*.numHosts = 36
**.numRadios = 3
output-scalar-file = ../results/${configname}_par${sp}_${repetition}_.sca
output-vector-file = ../results/${configname}_par${numudpapp}_${repetition}_.vec
**.channelControl.numChannels = 8
**.mobileHost[*].wlan[0].radio.channelNumber = 1
**.mobileHost[*].wlan[1].radio.channelNumber = 6
**.mobileHost[*].wlan[2].radio.channelNumber = 7
#**.mobileHost[*].wlan[3].radio.channelNumber = 4
#**.mobileHost[*].wlan[4].radio.channelNumber = 2
*.mobileHost[0].mobility.x = 0
*.mobileHost[0].mobility.y = 0
*.mobileHost[1].mobility.x = 150
*.mobileHost[1].mobility.y = 0
*.mobileHost[2].mobility.x = 300
*.mobileHost[2].mobility.y = 0
*.mobileHost[3].mobility.x = 450
*.mobileHost[3].mobility.y = 0
*.mobileHost[4].mobility.x = 600
*.mobileHost[4].mobility.y = 0
*.mobileHost[5].mobility.x = 750
*.mobileHost[5].mobility.y = 0
*.mobileHost[6].mobility.x = 0
*.mobileHost[6].mobility.y = 150
*.mobileHost[7].mobility.x = 150
*.mobileHost[7].mobility.y = 150
*.mobileHost[8].mobility.x = 300
*.mobileHost[8].mobility.y = 150
*.mobileHost[9].mobility.x = 450
*.mobileHost[9].mobility.y = 150
*.mobileHost[10].mobility.x = 600
*.mobileHost[10].mobility.y = 150
*.mobileHost[11].mobility.x = 750
*.mobileHost[11].mobility.y = 150
*.mobileHost[12].mobility.x = 0
*.mobileHost[12].mobility.y = 300
*.mobileHost[13].mobility.x = 150
*.mobileHost[13].mobility.y = 300
*.mobileHost[14].mobility.x = 300
*.mobileHost[14].mobility.y = 300
*.mobileHost[15].mobility.x = 450
*.mobileHost[15].mobility.y = 300
*.mobileHost[16].mobility.x = 600
*.mobileHost[16].mobility.y = 300
*.mobileHost[17].mobility.x = 750
*.mobileHost[17].mobility.y = 300
*.mobileHost[18].mobility.x = 0
*.mobileHost[18].mobility.y = 450
*.mobileHost[19].mobility.x = 150
*.mobileHost[19].mobility.y = 450
*.mobileHost[20].mobility.x = 300
*.mobileHost[20].mobility.y = 450
*.mobileHost[21].mobility.x = 450
*.mobileHost[21].mobility.y = 450
*.mobileHost[22].mobility.x = 600
*.mobileHost[22].mobility.y = 450
*.mobileHost[23].mobility.x = 750
*.mobileHost[23].mobility.y = 450
*.mobileHost[24].mobility.x = 0
*.mobileHost[24].mobility.y = 600
*.mobileHost[25].mobility.x = 150
*.mobileHost[25].mobility.y = 600
*.mobileHost[26].mobility.x = 300
*.mobileHost[26].mobility.y = 600
*.mobileHost[27].mobility.x = 450
*.mobileHost[27].mobility.y = 600
*.mobileHost[28].mobility.x = 600
*.mobileHost[28].mobility.y = 600
*.mobileHost[29].mobility.x = 750
*.mobileHost[29].mobility.y = 600
*.mobileHost[30].mobility.x = 0
*.mobileHost[30].mobility.y = 750
*.mobileHost[31].mobility.x = 150
*.mobileHost[31].mobility.y = 750
*.mobileHost[32].mobility.x = 300
*.mobileHost[32].mobility.y = 750
*.mobileHost[33].mobility.x = 450
*.mobileHost[33].mobility.y = 750
*.mobileHost[34].mobility.x = 600
*.mobileHost[34].mobility.y = 750
*.mobileHost[35].mobility.x = 750
*.mobileHost[35].mobility.y = 750
