[Config RAND6x6C]

record-eventlog = false
sim-time-limit = 60s

**.policy = "RANDOM"
**.mobileHost[*].numUdpApps = ${numudpapp = 3}
repeat = 10
**.udpApp[*].start_probability = ${sp=50,55,60,65,70,75,80,85,90,95,100}
**.udpApp[*].time_start_log = 30s
**.udpApp[*].time_begin = uniform(1s,30s)
**.wlan[*].mac.time_start_log = 30s
**.udpApp[*].limitDelay = ${ld=0.2s}

*.numHosts = 36
**.numRadios = 3
output-scalar-file = ./results/${configname}${ld}_par${sp}_${repetition}_.sca
output-vector-file = ./results/${configname}_par${numudpapp}_${repetition}_.vec
**.channelControl.numChannels = 8
**.mobileHost[*].wlan[0].radio.channelNumber = 1
**.mobileHost[*].wlan[1].radio.channelNumber = 6
**.mobileHost[*].wlan[2].radio.channelNumber = 7
#**.mobileHost[*].wlan[3].radio.channelNumber = 4
#**.mobileHost[*].wlan[4].radio.channelNumber = 2
*.mobileHost[0].mobility.x = 0
*.mobileHost[0].mobility.y = 0
*.mobileHost[1].mobility.x = 150
*.mobileHost[1].mobility.y = 0
*.mobileHost[2].mobility.x = 300
*.mobileHost[2].mobility.y = 0
*.mobileHost[3].mobility.x = 450
*.mobileHost[3].mobility.y = 0
*.mobileHost[4].mobility.x = 600
*.mobileHost[4].mobility.y = 0
*.mobileHost[5].mobility.x = 750
*.mobileHost[5].mobility.y = 0
*.mobileHost[6].mobility.x = 0
*.mobileHost[6].mobility.y = 150
*.mobileHost[7].mobility.x = 150
*.mobileHost[7].mobility.y = 150
*.mobileHost[8].mobility.x = 300
*.mobileHost[8].mobility.y = 150
*.mobileHost[9].mobility.x = 450
*.mobileHost[9].mobility.y = 150
*.mobileHost[10].mobility.x = 600
*.mobileHost[10].mobility.y = 150
*.mobileHost[11].mobility.x = 750
*.mobileHost[11].mobility.y = 150
*.mobileHost[12].mobility.x = 0
*.mobileHost[12].mobility.y = 300
*.mobileHost[13].mobility.x = 150
*.mobileHost[13].mobility.y = 300
*.mobileHost[14].mobility.x = 300
*.mobileHost[14].mobility.y = 300
*.mobileHost[15].mobility.x = 450
*.mobileHost[15].mobility.y = 300
*.mobileHost[16].mobility.x = 600
*.mobileHost[16].mobility.y = 300
*.mobileHost[17].mobility.x = 750
*.mobileHost[17].mobility.y = 300
*.mobileHost[18].mobility.x = 0
*.mobileHost[18].mobility.y = 450
*.mobileHost[19].mobility.x = 150
*.mobileHost[19].mobility.y = 450
*.mobileHost[20].mobility.x = 300
*.mobileHost[20].mobility.y = 450
*.mobileHost[21].mobility.x = 450
*.mobileHost[21].mobility.y = 450
*.mobileHost[22].mobility.x = 600
*.mobileHost[22].mobility.y = 450
*.mobileHost[23].mobility.x = 750
*.mobileHost[23].mobility.y = 450
*.mobileHost[24].mobility.x = 0
*.mobileHost[24].mobility.y = 600
*.mobileHost[25].mobility.x = 150
*.mobileHost[25].mobility.y = 600
*.mobileHost[26].mobility.x = 300
*.mobileHost[26].mobility.y = 600
*.mobileHost[27].mobility.x = 450
*.mobileHost[27].mobility.y = 600
*.mobileHost[28].mobility.x = 600
*.mobileHost[28].mobility.y = 600
*.mobileHost[29].mobility.x = 750
*.mobileHost[29].mobility.y = 600
*.mobileHost[30].mobility.x = 0
*.mobileHost[30].mobility.y = 750
*.mobileHost[31].mobility.x = 150
*.mobileHost[31].mobility.y = 750
*.mobileHost[32].mobility.x = 300
*.mobileHost[32].mobility.y = 750
*.mobileHost[33].mobility.x = 450
*.mobileHost[33].mobility.y = 750
*.mobileHost[34].mobility.x = 600
*.mobileHost[34].mobility.y = 750
*.mobileHost[35].mobility.x = 750
*.mobileHost[35].mobility.y = 750


[Config RAND4x4C]

record-eventlog = false
sim-time-limit = 60s

**.policy = "RANDOM"
**.mobileHost[*].numUdpApps = ${numudpapp = 8}
repeat = 10
**.udpApp[*].start_probability = ${sp=50,55,60,65,70,75,80,85,90,95,100}
**.udpApp[*].time_start_log = 30s
**.udpApp[*].time_begin = uniform(1s,30s)
**.wlan[*].mac.time_start_log = 30s
**.udpApp[*].limitDelay = ${ld=0.2s}


*.numHosts = 16
**.numRadios = 3
output-scalar-file = ./results/${configname}${ld}_par${sp}_${repetition}_.sca
output-vector-file = ./results/${configname}_par${numudpapp}_${repetition}_.vec
**.channelControl.numChannels = 8
**.mobileHost[*].wlan[0].radio.channelNumber = 1
**.mobileHost[*].wlan[1].radio.channelNumber = 6
**.mobileHost[*].wlan[2].radio.channelNumber = 7
*.mobileHost[0].mobility.x = 0
*.mobileHost[0].mobility.y = 0
*.mobileHost[1].mobility.x = 150
*.mobileHost[1].mobility.y = 0
*.mobileHost[2].mobility.x = 300
*.mobileHost[2].mobility.y = 0
*.mobileHost[3].mobility.x = 450
*.mobileHost[3].mobility.y = 0
*.mobileHost[4].mobility.x = 0
*.mobileHost[4].mobility.y = 150
*.mobileHost[5].mobility.x = 150
*.mobileHost[5].mobility.y = 150
*.mobileHost[6].mobility.x = 300
*.mobileHost[6].mobility.y = 150
*.mobileHost[7].mobility.x = 450
*.mobileHost[7].mobility.y = 150
*.mobileHost[8].mobility.x = 0
*.mobileHost[8].mobility.y = 300
*.mobileHost[9].mobility.x = 150
*.mobileHost[9].mobility.y = 300
*.mobileHost[10].mobility.x = 300
*.mobileHost[10].mobility.y = 300
*.mobileHost[11].mobility.x = 450
*.mobileHost[11].mobility.y = 300
*.mobileHost[12].mobility.x = 0
*.mobileHost[12].mobility.y = 450
*.mobileHost[13].mobility.x = 150
*.mobileHost[13].mobility.y = 450
*.mobileHost[14].mobility.x = 300
*.mobileHost[14].mobility.y = 450
*.mobileHost[15].mobility.x = 450
*.mobileHost[15].mobility.y = 450

[Config rand9]

record-eventlog = false
sim-time-limit = 60s

**.policy = "RANDOM"
**.mobileHost[*].numUdpApps = ${numudpapp = 15}
repeat = 1
**.udpApp[*].start_probability = ${sp=100}
**.udpApp[*].time_start_log = 30s
**.udpApp[*].time_begin = uniform(1s,30s)
**.wlan[*].mac.time_start_log = 30s
**.udpApp[*].limitDelay = 0.2s

*.numHosts = 9
**.numRadios = 3
output-scalar-file = ./results/${configname}_par${sp}_${repetition}_.sca
output-vector-file = ./results/${configname}_par${numudpapp}_${repetition}_.vec
**.channelControl.numChannels = 8
**.mobileHost[*].wlan[0].radio.channelNumber = 1
**.mobileHost[*].wlan[1].radio.channelNumber = 6
**.mobileHost[*].wlan[2].radio.channelNumber = 7
*.mobileHost[0].mobility.x = 0
*.mobileHost[0].mobility.y = 0
*.mobileHost[1].mobility.x = 150
*.mobileHost[1].mobility.y = 0
*.mobileHost[2].mobility.x = 300
*.mobileHost[2].mobility.y = 0
*.mobileHost[3].mobility.x = 0
*.mobileHost[3].mobility.y = 150
*.mobileHost[4].mobility.x = 150
*.mobileHost[4].mobility.y = 150
*.mobileHost[5].mobility.x = 300
*.mobileHost[5].mobility.y = 150
*.mobileHost[6].mobility.x = 0
*.mobileHost[6].mobility.y = 300
*.mobileHost[7].mobility.x = 150
*.mobileHost[7].mobility.y = 300
*.mobileHost[8].mobility.x = 300
*.mobileHost[8].mobility.y = 300

[Config RAND5x5C]

record-eventlog = false
sim-time-limit = 60s

**.policy = "RANDOM"
**.mobileHost[*].numUdpApps = ${numudpapp = 5}
repeat = 10
**.udpApp[*].start_probability = ${sp=50,55,60,65,70,75,80,85,90,95,100}
**.udpApp[*].time_start_log = 30s
**.udpApp[*].time_begin = uniform(1s,30s)
**.wlan[*].mac.time_start_log = 30s
**.udpApp[*].limitDelay = ${ld=0.2s}

*.numHosts = 25
**.numRadios = 3
output-scalar-file = ./results/${configname}${ld}_par${sp}_${repetition}_.sca
output-vector-file = ./results/${configname}_par${numudpapp}_${repetition}_.vec
**.channelControl.numChannels = 8
**.mobileHost[*].wlan[0].radio.channelNumber = 1
**.mobileHost[*].wlan[1].radio.channelNumber = 6
**.mobileHost[*].wlan[2].radio.channelNumber = 7
#**.mobileHost[*].wlan[3].radio.channelNumber = 4
#**.mobileHost[*].wlan[4].radio.channelNumber = 2
*.mobileHost[0].mobility.x = 0
*.mobileHost[0].mobility.y = 0
*.mobileHost[1].mobility.x = 150
*.mobileHost[1].mobility.y = 0
*.mobileHost[2].mobility.x = 300
*.mobileHost[2].mobility.y = 0
*.mobileHost[3].mobility.x = 450
*.mobileHost[3].mobility.y = 0
*.mobileHost[4].mobility.x = 600
*.mobileHost[4].mobility.y = 0
*.mobileHost[5].mobility.x = 0
*.mobileHost[5].mobility.y = 150
*.mobileHost[6].mobility.x = 150
*.mobileHost[6].mobility.y = 150
*.mobileHost[7].mobility.x = 300
*.mobileHost[7].mobility.y = 150
*.mobileHost[8].mobility.x = 450
*.mobileHost[8].mobility.y = 150
*.mobileHost[9].mobility.x = 600
*.mobileHost[9].mobility.y = 150
*.mobileHost[10].mobility.x = 0
*.mobileHost[10].mobility.y = 300
*.mobileHost[11].mobility.x = 150
*.mobileHost[11].mobility.y = 300
*.mobileHost[12].mobility.x = 300
*.mobileHost[12].mobility.y = 300
*.mobileHost[13].mobility.x = 450
*.mobileHost[13].mobility.y = 300
*.mobileHost[14].mobility.x = 600
*.mobileHost[14].mobility.y = 300
*.mobileHost[15].mobility.x = 0
*.mobileHost[15].mobility.y = 450
*.mobileHost[16].mobility.x = 150
*.mobileHost[16].mobility.y = 450
*.mobileHost[17].mobility.x = 300
*.mobileHost[17].mobility.y = 450
*.mobileHost[18].mobility.x = 450
*.mobileHost[18].mobility.y = 450
*.mobileHost[19].mobility.x = 600
*.mobileHost[19].mobility.y = 450
*.mobileHost[20].mobility.x = 0
*.mobileHost[20].mobility.y = 600
*.mobileHost[21].mobility.x = 150
*.mobileHost[21].mobility.y = 600
*.mobileHost[22].mobility.x = 300
*.mobileHost[22].mobility.y = 600
*.mobileHost[23].mobility.x = 450
*.mobileHost[23].mobility.y = 600
*.mobileHost[24].mobility.x = 600
*.mobileHost[24].mobility.y = 600

[Config rand7Line5]

record-eventlog = false
sim-time-limit = 20s
**.udpApp[*].time_off = 1s

**.policy = "RANDOM"
**.mobileHost[*].numUdpApps = ${numudpapp = 20}
repeat = 3
**.udpApp[*].start_probability = ${sp=60,70,80,90,100}

*.numHosts = 7
**.numRadios = 5
output-scalar-file = ./results/${configname}_par${sp}_${repetition}_.sca
output-vector-file = ./results/${configname}_par${numudpapp}_${repetition}_.vec
**.channelControl.numChannels = 8
**.mobileHost[*].wlan[0].radio.channelNumber = 1
**.mobileHost[*].wlan[1].radio.channelNumber = 6
**.mobileHost[*].wlan[2].radio.channelNumber = 7
**.mobileHost[*].wlan[3].radio.channelNumber = 4
**.mobileHost[*].wlan[4].radio.channelNumber = 2
*.mobileHost[0].mobility.x = 0
*.mobileHost[0].mobility.y = 0
*.mobileHost[1].mobility.x = 0
*.mobileHost[1].mobility.y = 150
*.mobileHost[2].mobility.x = 0
*.mobileHost[2].mobility.y = 300
*.mobileHost[3].mobility.x = 0
*.mobileHost[3].mobility.y = 450
*.mobileHost[4].mobility.x = 0
*.mobileHost[4].mobility.y = 600
*.mobileHost[5].mobility.x = 0
*.mobileHost[5].mobility.y = 750
*.mobileHost[6].mobility.x = 0
*.mobileHost[6].mobility.y = 900

[Config random36]

record-eventlog = false
# network = NetworkMultiRadioIPv4
sim-time-limit = 20s
**.udpApp[*].time_off = 1s

**.policy = "RANDOM"

**.mobileHost[*].numUdpApps = ${numudpapp = 3}
repeat = 6
**.udpApp[*].start_probability = ${sp=40,50,60,70,80}


*.numHosts = 36
**.numRadios = 3
output-scalar-file = ../results/${configname}_par${sp}_${repetition}_.sca
output-vector-file = ../results/${configname}_par${numudpapp}_${repetition}_.vec
**.channelControl.numChannels = 8
**.mobileHost[*].wlan[0].radio.channelNumber = 1
**.mobileHost[*].wlan[1].radio.channelNumber = 6
**.mobileHost[*].wlan[2].radio.channelNumber = 7
#**.mobileHost[*].wlan[3].radio.channelNumber = 4
#**.mobileHost[*].wlan[4].radio.channelNumber = 2
*.mobileHost[0].mobility.x = 0
*.mobileHost[0].mobility.y = 0
*.mobileHost[1].mobility.x = 150
*.mobileHost[1].mobility.y = 0
*.mobileHost[2].mobility.x = 300
*.mobileHost[2].mobility.y = 0
*.mobileHost[3].mobility.x = 450
*.mobileHost[3].mobility.y = 0
*.mobileHost[4].mobility.x = 600
*.mobileHost[4].mobility.y = 0
*.mobileHost[5].mobility.x = 750
*.mobileHost[5].mobility.y = 0
*.mobileHost[6].mobility.x = 0
*.mobileHost[6].mobility.y = 150
*.mobileHost[7].mobility.x = 150
*.mobileHost[7].mobility.y = 150
*.mobileHost[8].mobility.x = 300
*.mobileHost[8].mobility.y = 150
*.mobileHost[9].mobility.x = 450
*.mobileHost[9].mobility.y = 150
*.mobileHost[10].mobility.x = 600
*.mobileHost[10].mobility.y = 150
*.mobileHost[11].mobility.x = 750
*.mobileHost[11].mobility.y = 150
*.mobileHost[12].mobility.x = 0
*.mobileHost[12].mobility.y = 300
*.mobileHost[13].mobility.x = 150
*.mobileHost[13].mobility.y = 300
*.mobileHost[14].mobility.x = 300
*.mobileHost[14].mobility.y = 300
*.mobileHost[15].mobility.x = 450
*.mobileHost[15].mobility.y = 300
*.mobileHost[16].mobility.x = 600
*.mobileHost[16].mobility.y = 300
*.mobileHost[17].mobility.x = 750
*.mobileHost[17].mobility.y = 300
*.mobileHost[18].mobility.x = 0
*.mobileHost[18].mobility.y = 450
*.mobileHost[19].mobility.x = 150
*.mobileHost[19].mobility.y = 450
*.mobileHost[20].mobility.x = 300
*.mobileHost[20].mobility.y = 450
*.mobileHost[21].mobility.x = 450
*.mobileHost[21].mobility.y = 450
*.mobileHost[22].mobility.x = 600
*.mobileHost[22].mobility.y = 450
*.mobileHost[23].mobility.x = 750
*.mobileHost[23].mobility.y = 450
*.mobileHost[24].mobility.x = 0
*.mobileHost[24].mobility.y = 600
*.mobileHost[25].mobility.x = 150
*.mobileHost[25].mobility.y = 600
*.mobileHost[26].mobility.x = 300
*.mobileHost[26].mobility.y = 600
*.mobileHost[27].mobility.x = 450
*.mobileHost[27].mobility.y = 600
*.mobileHost[28].mobility.x = 600
*.mobileHost[28].mobility.y = 600
*.mobileHost[29].mobility.x = 750
*.mobileHost[29].mobility.y = 600
*.mobileHost[30].mobility.x = 0
*.mobileHost[30].mobility.y = 750
*.mobileHost[31].mobility.x = 150
*.mobileHost[31].mobility.y = 750
*.mobileHost[32].mobility.x = 300
*.mobileHost[32].mobility.y = 750
*.mobileHost[33].mobility.x = 450
*.mobileHost[33].mobility.y = 750
*.mobileHost[34].mobility.x = 600
*.mobileHost[34].mobility.y = 750
*.mobileHost[35].mobility.x = 750
*.mobileHost[35].mobility.y = 750
