[Config static9RAN]

record-eventlog = false
sim-time-limit = 20s
**.udpApp[*].time_off = 1s

**.policy = "STATIC"
**.ifChoice = "RANDOM_C"
**.mobileHost[*].numUdpApps = ${numudpapp = 15}
repeat = 3
**.udpApp[*].start_probability = ${sp=60,70,80,90,100}

*.numHosts = 9
**.numRadios = 3
output-scalar-file = ./results/${configname}_par${sp}_${repetition}_.sca
output-vector-file = ./results/${configname}_par${numudpapp}_${repetition}_.vec
**.channelControl.numChannels = 8
**.mobileHost[*].wlan[0].radio.channelNumber = 1
**.mobileHost[*].wlan[1].radio.channelNumber = 6
**.mobileHost[*].wlan[2].radio.channelNumber = 7
*.mobileHost[0].mobility.x = 0
*.mobileHost[0].mobility.y = 0
*.mobileHost[1].mobility.x = 150
*.mobileHost[1].mobility.y = 0
*.mobileHost[2].mobility.x = 300
*.mobileHost[2].mobility.y = 0
*.mobileHost[3].mobility.x = 0
*.mobileHost[3].mobility.y = 150
*.mobileHost[4].mobility.x = 150
*.mobileHost[4].mobility.y = 150
*.mobileHost[5].mobility.x = 300
*.mobileHost[5].mobility.y = 150
*.mobileHost[6].mobility.x = 0
*.mobileHost[6].mobility.y = 300
*.mobileHost[7].mobility.x = 150
*.mobileHost[7].mobility.y = 300
*.mobileHost[8].mobility.x = 300
*.mobileHost[8].mobility.y = 300
*.mobileHost[0].manetRouting.manetmanager.manetroutingprotocol.nodeClass = 3
*.mobileHost[1].manetRouting.manetmanager.manetroutingprotocol.nodeClass = 3
*.mobileHost[2].manetRouting.manetmanager.manetroutingprotocol.nodeClass = 3
*.mobileHost[3].manetRouting.manetmanager.manetroutingprotocol.nodeClass = 3
*.mobileHost[4].manetRouting.manetmanager.manetroutingprotocol.nodeClass = 3
*.mobileHost[5].manetRouting.manetmanager.manetroutingprotocol.nodeClass = 3
*.mobileHost[6].manetRouting.manetmanager.manetroutingprotocol.nodeClass = 3
*.mobileHost[7].manetRouting.manetmanager.manetroutingprotocol.nodeClass = 3
*.mobileHost[8].manetRouting.manetmanager.manetroutingprotocol.nodeClass = 3

[Config static16RAN]

record-eventlog = false
sim-time-limit = 20s
**.udpApp[*].time_off = 1s

**.policy = "STATIC"
**.ifChoice = "RANDOM_C"
**.mobileHost[*].numUdpApps = ${numudpapp = 6}
repeat = 3
**.udpApp[*].start_probability = ${sp=70,80,90,100}

*.numHosts = 16
**.numRadios = 3
output-scalar-file = ./results/${configname}_par${sp}_${repetition}_.sca
output-vector-file = ./results/${configname}_par${numudpapp}_${repetition}_.vec
**.channelControl.numChannels = 8
**.mobileHost[*].wlan[0].radio.channelNumber = 1
**.mobileHost[*].wlan[1].radio.channelNumber = 6
**.mobileHost[*].wlan[2].radio.channelNumber = 7
*.mobileHost[0].mobility.x = 0
*.mobileHost[0].mobility.y = 0
*.mobileHost[1].mobility.x = 150
*.mobileHost[1].mobility.y = 0
*.mobileHost[2].mobility.x = 300
*.mobileHost[2].mobility.y = 0
*.mobileHost[3].mobility.x = 450
*.mobileHost[3].mobility.y = 0
*.mobileHost[4].mobility.x = 0
*.mobileHost[4].mobility.y = 150
*.mobileHost[5].mobility.x = 150
*.mobileHost[5].mobility.y = 150
*.mobileHost[6].mobility.x = 300
*.mobileHost[6].mobility.y = 150
*.mobileHost[7].mobility.x = 450
*.mobileHost[7].mobility.y = 150
*.mobileHost[8].mobility.x = 0
*.mobileHost[8].mobility.y = 300
*.mobileHost[9].mobility.x = 150
*.mobileHost[9].mobility.y = 300
*.mobileHost[10].mobility.x = 300
*.mobileHost[10].mobility.y = 300
*.mobileHost[11].mobility.x = 450
*.mobileHost[11].mobility.y = 300
*.mobileHost[12].mobility.x = 0
*.mobileHost[12].mobility.y = 450
*.mobileHost[13].mobility.x = 150
*.mobileHost[13].mobility.y = 450
*.mobileHost[14].mobility.x = 300
*.mobileHost[14].mobility.y = 450
*.mobileHost[15].mobility.x = 450
*.mobileHost[15].mobility.y = 450
*.mobileHost[0].manetRouting.manetmanager.manetroutingprotocol.nodeClass = 2
*.mobileHost[1].manetRouting.manetmanager.manetroutingprotocol.nodeClass = 2
*.mobileHost[2].manetRouting.manetmanager.manetroutingprotocol.nodeClass = 2
*.mobileHost[3].manetRouting.manetmanager.manetroutingprotocol.nodeClass = 2
*.mobileHost[4].manetRouting.manetmanager.manetroutingprotocol.nodeClass = 2
*.mobileHost[5].manetRouting.manetmanager.manetroutingprotocol.nodeClass = 3
*.mobileHost[6].manetRouting.manetmanager.manetroutingprotocol.nodeClass = 3
*.mobileHost[7].manetRouting.manetmanager.manetroutingprotocol.nodeClass = 2
*.mobileHost[8].manetRouting.manetmanager.manetroutingprotocol.nodeClass = 2
*.mobileHost[9].manetRouting.manetmanager.manetroutingprotocol.nodeClass = 3
*.mobileHost[10].manetRouting.manetmanager.manetroutingprotocol.nodeClass = 3
*.mobileHost[11].manetRouting.manetmanager.manetroutingprotocol.nodeClass = 2
*.mobileHost[12].manetRouting.manetmanager.manetroutingprotocol.nodeClass = 2
*.mobileHost[13].manetRouting.manetmanager.manetroutingprotocol.nodeClass = 2
*.mobileHost[14].manetRouting.manetmanager.manetroutingprotocol.nodeClass = 2
*.mobileHost[15].manetRouting.manetmanager.manetroutingprotocol.nodeClass = 2


[Config static25PRE]

record-eventlog = false
sim-time-limit = 20s
**.udpApp[*].time_off = 1s

**.policy = "STATIC"
**.ifChoice = "PREALLOC_C"
**.mobileHost[*].numUdpApps = ${numudpapp = 4}
repeat = 3
**.udpApp[*].start_probability = ${sp=70,80,90,100}

*.numHosts = 25
**.numRadios = 3
output-scalar-file = ./results/${configname}_par${sp}_${repetition}_.sca
output-vector-file = ./results/${configname}_par${numudpapp}_${repetition}_.vec
**.channelControl.numChannels = 8
**.mobileHost[*].wlan[0].radio.channelNumber = 1
**.mobileHost[*].wlan[1].radio.channelNumber = 6
**.mobileHost[*].wlan[2].radio.channelNumber = 7
*.mobileHost[0].mobility.x = 0
*.mobileHost[0].mobility.y = 0
*.mobileHost[1].mobility.x = 150
*.mobileHost[1].mobility.y = 0
*.mobileHost[2].mobility.x = 300
*.mobileHost[2].mobility.y = 0
*.mobileHost[3].mobility.x = 450
*.mobileHost[3].mobility.y = 0
*.mobileHost[4].mobility.x = 600
*.mobileHost[4].mobility.y = 0
*.mobileHost[5].mobility.x = 0
*.mobileHost[5].mobility.y = 150
*.mobileHost[6].mobility.x = 150
*.mobileHost[6].mobility.y = 150
*.mobileHost[7].mobility.x = 300
*.mobileHost[7].mobility.y = 150
*.mobileHost[8].mobility.x = 450
*.mobileHost[8].mobility.y = 150
*.mobileHost[9].mobility.x = 600
*.mobileHost[9].mobility.y = 150
*.mobileHost[10].mobility.x = 0
*.mobileHost[10].mobility.y = 300
*.mobileHost[11].mobility.x = 150
*.mobileHost[11].mobility.y = 300
*.mobileHost[12].mobility.x = 300
*.mobileHost[12].mobility.y = 300
*.mobileHost[13].mobility.x = 450
*.mobileHost[13].mobility.y = 300
*.mobileHost[14].mobility.x = 600
*.mobileHost[14].mobility.y = 300
*.mobileHost[15].mobility.x = 0
*.mobileHost[15].mobility.y = 450
*.mobileHost[16].mobility.x = 150
*.mobileHost[16].mobility.y = 450
*.mobileHost[17].mobility.x = 300
*.mobileHost[17].mobility.y = 450
*.mobileHost[18].mobility.x = 450
*.mobileHost[18].mobility.y = 450
*.mobileHost[19].mobility.x = 600
*.mobileHost[19].mobility.y = 450
*.mobileHost[20].mobility.x = 0
*.mobileHost[20].mobility.y = 600
*.mobileHost[21].mobility.x = 150
*.mobileHost[21].mobility.y = 600
*.mobileHost[22].mobility.x = 300
*.mobileHost[22].mobility.y = 600
*.mobileHost[23].mobility.x = 450
*.mobileHost[23].mobility.y = 600
*.mobileHost[24].mobility.x = 600
*.mobileHost[24].mobility.y = 600
*.mobileHost[0].manetRouting.manetmanager.manetroutingprotocol.nodeClass = 2
*.mobileHost[1].manetRouting.manetmanager.manetroutingprotocol.nodeClass = 2
*.mobileHost[2].manetRouting.manetmanager.manetroutingprotocol.nodeClass = 2
*.mobileHost[3].manetRouting.manetmanager.manetroutingprotocol.nodeClass = 2
*.mobileHost[4].manetRouting.manetmanager.manetroutingprotocol.nodeClass = 2
*.mobileHost[5].manetRouting.manetmanager.manetroutingprotocol.nodeClass = 2
*.mobileHost[6].manetRouting.manetmanager.manetroutingprotocol.nodeClass = 3
*.mobileHost[7].manetRouting.manetmanager.manetroutingprotocol.nodeClass = 3
*.mobileHost[8].manetRouting.manetmanager.manetroutingprotocol.nodeClass = 3
*.mobileHost[9].manetRouting.manetmanager.manetroutingprotocol.nodeClass = 2
*.mobileHost[10].manetRouting.manetmanager.manetroutingprotocol.nodeClass = 2
*.mobileHost[11].manetRouting.manetmanager.manetroutingprotocol.nodeClass = 3
*.mobileHost[12].manetRouting.manetmanager.manetroutingprotocol.nodeClass = 3
*.mobileHost[13].manetRouting.manetmanager.manetroutingprotocol.nodeClass = 3
*.mobileHost[14].manetRouting.manetmanager.manetroutingprotocol.nodeClass = 2
*.mobileHost[15].manetRouting.manetmanager.manetroutingprotocol.nodeClass = 2
*.mobileHost[16].manetRouting.manetmanager.manetroutingprotocol.nodeClass = 3
*.mobileHost[17].manetRouting.manetmanager.manetroutingprotocol.nodeClass = 3
*.mobileHost[18].manetRouting.manetmanager.manetroutingprotocol.nodeClass = 3
*.mobileHost[19].manetRouting.manetmanager.manetroutingprotocol.nodeClass = 2
*.mobileHost[20].manetRouting.manetmanager.manetroutingprotocol.nodeClass = 2
*.mobileHost[21].manetRouting.manetmanager.manetroutingprotocol.nodeClass = 2
*.mobileHost[22].manetRouting.manetmanager.manetroutingprotocol.nodeClass = 2
*.mobileHost[23].manetRouting.manetmanager.manetroutingprotocol.nodeClass = 2
*.mobileHost[24].manetRouting.manetmanager.manetroutingprotocol.nodeClass = 2


[Config static36PRE]

record-eventlog = false
sim-time-limit = 20s
**.udpApp[*].time_off = 1s

**.policy = "STATIC"
**.ifChoice = "PREALLOC_C"
**.mobileHost[*].numUdpApps = ${numudpapp = 2}
repeat = 3
**.udpApp[*].start_probability = ${sp=70,80,90,100}

*.numHosts = 36
**.numRadios = 3
output-scalar-file = ./results/${configname}_par${sp}_${repetition}_.sca
output-vector-file = ./results/${configname}_par${numudpapp}_${repetition}_.vec
**.channelControl.numChannels = 8
**.mobileHost[*].wlan[0].radio.channelNumber = 1
**.mobileHost[*].wlan[1].radio.channelNumber = 6
**.mobileHost[*].wlan[2].radio.channelNumber = 7
*.mobileHost[0].mobility.x = 0
*.mobileHost[0].mobility.y = 0
*.mobileHost[1].mobility.x = 150
*.mobileHost[1].mobility.y = 0
*.mobileHost[2].mobility.x = 300
*.mobileHost[2].mobility.y = 0
*.mobileHost[3].mobility.x = 450
*.mobileHost[3].mobility.y = 0
*.mobileHost[4].mobility.x = 600
*.mobileHost[4].mobility.y = 0
*.mobileHost[5].mobility.x = 750
*.mobileHost[5].mobility.y = 0
*.mobileHost[6].mobility.x = 0
*.mobileHost[6].mobility.y = 150
*.mobileHost[7].mobility.x = 150
*.mobileHost[7].mobility.y = 150
*.mobileHost[8].mobility.x = 300
*.mobileHost[8].mobility.y = 150
*.mobileHost[9].mobility.x = 450
*.mobileHost[9].mobility.y = 150
*.mobileHost[10].mobility.x = 600
*.mobileHost[10].mobility.y = 150
*.mobileHost[11].mobility.x = 750
*.mobileHost[11].mobility.y = 150
*.mobileHost[12].mobility.x = 0
*.mobileHost[12].mobility.y = 300
*.mobileHost[13].mobility.x = 150
*.mobileHost[13].mobility.y = 300
*.mobileHost[14].mobility.x = 300
*.mobileHost[14].mobility.y = 300
*.mobileHost[15].mobility.x = 450
*.mobileHost[15].mobility.y = 300
*.mobileHost[16].mobility.x = 600
*.mobileHost[16].mobility.y = 300
*.mobileHost[17].mobility.x = 750
*.mobileHost[17].mobility.y = 300
*.mobileHost[18].mobility.x = 0
*.mobileHost[18].mobility.y = 450
*.mobileHost[19].mobility.x = 150
*.mobileHost[19].mobility.y = 450
*.mobileHost[20].mobility.x = 300
*.mobileHost[20].mobility.y = 450
*.mobileHost[21].mobility.x = 450
*.mobileHost[21].mobility.y = 450
*.mobileHost[22].mobility.x = 600
*.mobileHost[22].mobility.y = 450
*.mobileHost[23].mobility.x = 750
*.mobileHost[23].mobility.y = 450
*.mobileHost[24].mobility.x = 0
*.mobileHost[24].mobility.y = 600
*.mobileHost[25].mobility.x = 150
*.mobileHost[25].mobility.y = 600
*.mobileHost[26].mobility.x = 300
*.mobileHost[26].mobility.y = 600
*.mobileHost[27].mobility.x = 450
*.mobileHost[27].mobility.y = 600
*.mobileHost[28].mobility.x = 600
*.mobileHost[28].mobility.y = 600
*.mobileHost[29].mobility.x = 750
*.mobileHost[29].mobility.y = 600
*.mobileHost[30].mobility.x = 0
*.mobileHost[30].mobility.y = 750
*.mobileHost[31].mobility.x = 150
*.mobileHost[31].mobility.y = 750
*.mobileHost[32].mobility.x = 300
*.mobileHost[32].mobility.y = 750
*.mobileHost[33].mobility.x = 450
*.mobileHost[33].mobility.y = 750
*.mobileHost[34].mobility.x = 600
*.mobileHost[34].mobility.y = 750
*.mobileHost[35].mobility.x = 750
*.mobileHost[35].mobility.y = 750
*.mobileHost[0].manetRouting.manetmanager.manetroutingprotocol.nodeClass = 2
*.mobileHost[1].manetRouting.manetmanager.manetroutingprotocol.nodeClass = 2
*.mobileHost[2].manetRouting.manetmanager.manetroutingprotocol.nodeClass = 2
*.mobileHost[3].manetRouting.manetmanager.manetroutingprotocol.nodeClass = 2
*.mobileHost[4].manetRouting.manetmanager.manetroutingprotocol.nodeClass = 2
*.mobileHost[5].manetRouting.manetmanager.manetroutingprotocol.nodeClass = 2
*.mobileHost[6].manetRouting.manetmanager.manetroutingprotocol.nodeClass = 2
*.mobileHost[7].manetRouting.manetmanager.manetroutingprotocol.nodeClass = 3
*.mobileHost[8].manetRouting.manetmanager.manetroutingprotocol.nodeClass = 3
*.mobileHost[9].manetRouting.manetmanager.manetroutingprotocol.nodeClass = 3
*.mobileHost[10].manetRouting.manetmanager.manetroutingprotocol.nodeClass = 3
*.mobileHost[11].manetRouting.manetmanager.manetroutingprotocol.nodeClass = 2
*.mobileHost[12].manetRouting.manetmanager.manetroutingprotocol.nodeClass = 2
*.mobileHost[13].manetRouting.manetmanager.manetroutingprotocol.nodeClass = 3
*.mobileHost[14].manetRouting.manetmanager.manetroutingprotocol.nodeClass = 3
*.mobileHost[15].manetRouting.manetmanager.manetroutingprotocol.nodeClass = 3
*.mobileHost[16].manetRouting.manetmanager.manetroutingprotocol.nodeClass = 3
*.mobileHost[17].manetRouting.manetmanager.manetroutingprotocol.nodeClass = 2
*.mobileHost[18].manetRouting.manetmanager.manetroutingprotocol.nodeClass = 2
*.mobileHost[19].manetRouting.manetmanager.manetroutingprotocol.nodeClass = 3
*.mobileHost[20].manetRouting.manetmanager.manetroutingprotocol.nodeClass = 3
*.mobileHost[21].manetRouting.manetmanager.manetroutingprotocol.nodeClass = 3
*.mobileHost[22].manetRouting.manetmanager.manetroutingprotocol.nodeClass = 3
*.mobileHost[23].manetRouting.manetmanager.manetroutingprotocol.nodeClass = 2
*.mobileHost[24].manetRouting.manetmanager.manetroutingprotocol.nodeClass = 2
*.mobileHost[25].manetRouting.manetmanager.manetroutingprotocol.nodeClass = 3
*.mobileHost[26].manetRouting.manetmanager.manetroutingprotocol.nodeClass = 3
*.mobileHost[27].manetRouting.manetmanager.manetroutingprotocol.nodeClass = 3
*.mobileHost[28].manetRouting.manetmanager.manetroutingprotocol.nodeClass = 3
*.mobileHost[29].manetRouting.manetmanager.manetroutingprotocol.nodeClass = 2
*.mobileHost[30].manetRouting.manetmanager.manetroutingprotocol.nodeClass = 2
*.mobileHost[31].manetRouting.manetmanager.manetroutingprotocol.nodeClass = 2
*.mobileHost[32].manetRouting.manetmanager.manetroutingprotocol.nodeClass = 2
*.mobileHost[33].manetRouting.manetmanager.manetroutingprotocol.nodeClass = 2
*.mobileHost[34].manetRouting.manetmanager.manetroutingprotocol.nodeClass = 2
*.mobileHost[35].manetRouting.manetmanager.manetroutingprotocol.nodeClass = 2


[Config static7Line5RAN]

record-eventlog = false
sim-time-limit = 20s
**.udpApp[*].time_off = 1s

**.policy = "STATIC"
**.ifChoice = "RANDOM_C"
**.mobileHost[*].numUdpApps = ${numudpapp = 20}
repeat = 3
**.udpApp[*].start_probability = ${sp=60,70,80,90,100}

*.numHosts = 7
**.numRadios = 5
**.channelControl.numChannels = 8
**.mobileHost[*].wlan[0].radio.channelNumber = 1
**.mobileHost[*].wlan[1].radio.channelNumber = 6
**.mobileHost[*].wlan[2].radio.channelNumber = 7
**.mobileHost[*].wlan[3].radio.channelNumber = 4
**.mobileHost[*].wlan[4].radio.channelNumber = 2
*.mobileHost[0].mobility.x = 0
*.mobileHost[0].mobility.y = 0
*.mobileHost[1].mobility.x = 0
*.mobileHost[1].mobility.y = 150
*.mobileHost[2].mobility.x = 0
*.mobileHost[2].mobility.y = 300
*.mobileHost[3].mobility.x = 0
*.mobileHost[3].mobility.y = 450
*.mobileHost[4].mobility.x = 0
*.mobileHost[4].mobility.y = 600
*.mobileHost[5].mobility.x = 0
*.mobileHost[5].mobility.y = 750
*.mobileHost[6].mobility.x = 0
*.mobileHost[6].mobility.y = 900
*.mobileHost[0].manetRouting.manetmanager.manetroutingprotocol.nodeClass = 3
*.mobileHost[1].manetRouting.manetmanager.manetroutingprotocol.nodeClass = 4
*.mobileHost[2].manetRouting.manetmanager.manetroutingprotocol.nodeClass = 5
*.mobileHost[3].manetRouting.manetmanager.manetroutingprotocol.nodeClass = 4
*.mobileHost[4].manetRouting.manetmanager.manetroutingprotocol.nodeClass = 5
*.mobileHost[5].manetRouting.manetmanager.manetroutingprotocol.nodeClass = 4
*.mobileHost[6].manetRouting.manetmanager.manetroutingprotocol.nodeClass = 3
output-scalar-file = ./results/${configname}_par${sp}_${repetition}_.sca
output-vector-file = ./results/${configname}_par${numudpapp}_${repetition}_.vec

[Config static16PREv2]

record-eventlog = false
sim-time-limit = 20s
**.udpApp[*].time_off = 1s

**.policy = "STATIC"
**.ifChoice = "PREALLOC_C"
**.mobileHost[*].numUdpApps = ${numudpapp = 6}
repeat = 3
**.udpApp[*].start_probability = ${sp=70,80,90,100}

*.numHosts = 16
**.numRadios = 3
output-scalar-file = ./results/${configname}_par${sp}_${repetition}_.sca
output-vector-file = ./results/${configname}_par${numudpapp}_${repetition}_.vec
**.channelControl.numChannels = 8
**.mobileHost[*].wlan[0].radio.channelNumber = 1
**.mobileHost[*].wlan[1].radio.channelNumber = 6
**.mobileHost[*].wlan[2].radio.channelNumber = 7
*.mobileHost[0].mobility.x = 0
*.mobileHost[0].mobility.y = 0
*.mobileHost[1].mobility.x = 150
*.mobileHost[1].mobility.y = 0
*.mobileHost[2].mobility.x = 300
*.mobileHost[2].mobility.y = 0
*.mobileHost[3].mobility.x = 450
*.mobileHost[3].mobility.y = 0
*.mobileHost[4].mobility.x = 0
*.mobileHost[4].mobility.y = 150
*.mobileHost[5].mobility.x = 150
*.mobileHost[5].mobility.y = 150
*.mobileHost[6].mobility.x = 300
*.mobileHost[6].mobility.y = 150
*.mobileHost[7].mobility.x = 450
*.mobileHost[7].mobility.y = 150
*.mobileHost[8].mobility.x = 0
*.mobileHost[8].mobility.y = 300
*.mobileHost[9].mobility.x = 150
*.mobileHost[9].mobility.y = 300
*.mobileHost[10].mobility.x = 300
*.mobileHost[10].mobility.y = 300
*.mobileHost[11].mobility.x = 450
*.mobileHost[11].mobility.y = 300
*.mobileHost[12].mobility.x = 0
*.mobileHost[12].mobility.y = 450
*.mobileHost[13].mobility.x = 150
*.mobileHost[13].mobility.y = 450
*.mobileHost[14].mobility.x = 300
*.mobileHost[14].mobility.y = 450
*.mobileHost[15].mobility.x = 450
*.mobileHost[15].mobility.y = 450
*.mobileHost[0].manetRouting.manetmanager.manetroutingprotocol.nodeClass = 1
*.mobileHost[1].manetRouting.manetmanager.manetroutingprotocol.nodeClass = 1
*.mobileHost[2].manetRouting.manetmanager.manetroutingprotocol.nodeClass = 1
*.mobileHost[3].manetRouting.manetmanager.manetroutingprotocol.nodeClass = 1
*.mobileHost[4].manetRouting.manetmanager.manetroutingprotocol.nodeClass = 1
*.mobileHost[5].manetRouting.manetmanager.manetroutingprotocol.nodeClass = 3
*.mobileHost[6].manetRouting.manetmanager.manetroutingprotocol.nodeClass = 3
*.mobileHost[7].manetRouting.manetmanager.manetroutingprotocol.nodeClass = 1
*.mobileHost[8].manetRouting.manetmanager.manetroutingprotocol.nodeClass = 1
*.mobileHost[9].manetRouting.manetmanager.manetroutingprotocol.nodeClass = 3
*.mobileHost[10].manetRouting.manetmanager.manetroutingprotocol.nodeClass = 3
*.mobileHost[11].manetRouting.manetmanager.manetroutingprotocol.nodeClass = 1
*.mobileHost[12].manetRouting.manetmanager.manetroutingprotocol.nodeClass = 1
*.mobileHost[13].manetRouting.manetmanager.manetroutingprotocol.nodeClass = 1
*.mobileHost[14].manetRouting.manetmanager.manetroutingprotocol.nodeClass = 1
*.mobileHost[15].manetRouting.manetmanager.manetroutingprotocol.nodeClass = 1

